8500-Node/IEEE8500_EXP_POWERS.CSV
Element, Terminal, P(kW), Q(kvar),  P_Normal, Q_Normal, P_Emergency, Q_Emergency
"Line.HVMV_SUB_CONNECTOR",   1,     11918.9,       487.7,      3263.5,       133.5,         0.0,         0.0
"Line.HVMV_SUB_CONNECTOR",   2,    -11918.9,      -487.7
"Line.LN5502549-1"      ,   1,        13.8,         3.7,         0.0,         0.0,         0.0,         0.0
"Line.LN5502549-1"      ,   2,       -13.8,        -3.7
"Line.LN6259988-1"      ,   1,        10.3,         2.7,         0.0,         0.0,         0.0,         0.0
"Line.LN6259988-1"      ,   2,       -10.3,        -2.8
"Line.LN6077796-1"      ,   1,        11.8,         3.2,         0.0,         0.0,         0.0,         0.0
"Line.LN6077796-1"      ,   2,       -11.8,        -3.2
"Line.LN5835135-2"      ,   1,       114.8,        30.3,         0.0,         0.0,         0.0,         0.0
"Line.LN5835135-2"      ,   2,      -114.8,       -30.3
"Line.LN5896826-1"      ,   1,         5.9,         1.6,         0.0,         0.0,         0.0,         0.0
"Line.LN5896826-1"      ,   2,        -5.9,        -1.6
"Line.LN5714038-1"      ,   1,        15.8,         4.1,         0.0,         0.0,         0.0,         0.0
"Line.LN5714038-1"      ,   2,       -15.8,        -4.1
"Line.LN5653457-1"      ,   1,       552.7,       146.8,         0.0,         0.0,         0.0,         0.0
"Line.LN5653457-1"      ,   2,      -552.4,      -146.7
"Line.LN5835173-1"      ,   1,       989.3,       265.7,         0.0,         0.0,         0.0,         0.0
"Line.LN5835173-1"      ,   2,      -989.1,      -265.6
"Line.LN6321415-1"      ,   1,         9.9,         2.6,         0.0,         0.0,         0.0,         0.0
"Line.LN6321415-1"      ,   2,        -9.9,        -2.6
"Line.LN5565092-1"      ,   1,        15.5,         4.1,         0.0,         0.0,         0.0,         0.0
"Line.LN5565092-1"      ,   2,       -15.5,        -4.1
"Line.LN6073648-1"      ,   1,        21.6,         5.7,         0.0,         0.0,         0.0,         0.0
"Line.LN6073648-1"      ,   2,       -21.6,        -5.7
"Line.LN5774457-1"      ,   1,       545.1,       144.3,         0.0,         0.0,         0.0,         0.0
"Line.LN5774457-1"      ,   2,      -545.0,      -144.3
"Line.LN5534966-3"      ,   1,        78.4,        20.9,         0.0,         0.0,         0.0,         0.0
"Line.LN5534966-3"      ,   2,       -78.4,       -20.9
"Line.LN5859996-1"      ,   1,        19.8,         5.3,         0.0,         0.0,         0.0,         0.0
"Line.LN5859996-1"      ,   2,       -19.8,        -5.3
"Line.LN6138610-2"      ,   1,      2247.6,       607.0,         0.0,         0.0,         0.0,         0.0
"Line.LN6138610-2"      ,   2,     -2246.2,      -606.6
"Line.LN6258435-3"      ,   1,        18.0,         4.8,         0.0,         0.0,         0.0,         0.0
"Line.LN6258435-3"      ,   2,       -18.0,        -4.8
"Line.LN5804790-1"      ,   1,        10.3,         2.7,         0.0,         0.0,         0.0,         0.0
"Line.LN5804790-1"      ,   2,       -10.3,        -2.8
"Line.LN6900591-14"     ,   1,        32.5,         8.7,         0.0,         0.0,         0.0,         0.0
"Line.LN6900591-14"     ,   2,       -32.5,        -8.7
"Line.LN6409873-1"      ,   1,        76.2,        19.8,         0.0,         0.0,         0.0,         0.0
"Line.LN6409873-1"      ,   2,       -76.2,       -19.8
"Line.LN6014135-1"      ,   1,        67.6,        18.0,         0.0,         0.0,         0.0,         0.0
"Line.LN6014135-1"      ,   2,       -67.6,       -18.0
"Line.LN6077784-1"      ,   1,      1208.3,       322.5,         0.0,         0.0,         0.0,         0.0
"Line.LN6077784-1"      ,   2,     -1208.0,      -322.3
"Line.LN5744338-1"      ,   1,       185.7,        49.5,         0.0,         0.0,         0.0,         0.0
"Line.LN5744338-1"      ,   2,      -185.6,       -49.4
"Line.LN6991381-4"      ,   1,        36.1,         9.6,         0.0,         0.0,         0.0,         0.0
"Line.LN6991381-4"      ,   2,       -36.1,        -9.6
"Line.LN5774480-1"      ,   1,       224.2,        59.8,         0.0,         0.0,         0.0,         0.0
"Line.LN5774480-1"      ,   2,      -224.0,       -59.6
"Line.LN5986938-3"      ,   1,        37.9,        10.0,         0.0,         0.0,         0.0,         0.0
"Line.LN5986938-3"      ,   2,       -37.9,       -10.0
"Line.LN5894230-1"      ,   1,        10.3,         2.7,         0.0,         0.0,         0.0,         0.0
"Line.LN5894230-1"      ,   2,       -10.3,        -2.8
"Line.LN5683858-3"      ,   1,        68.6,        18.3,         0.0,         0.0,         0.0,         0.0
"Line.LN5683858-3"      ,   2,       -68.6,       -18.3
"Line.LN5920279-5"      ,   1,      6309.7,       774.9,         0.0,         0.0,         0.0,         0.0
"Line.LN5920279-5"      ,   2,     -6308.7,      -772.5
"Line.LN6439600-1"      ,   1,         9.0,         2.4,         0.0,         0.0,         0.0,         0.0
"Line.LN6439600-1"      ,   2,        -9.0,        -2.4
"Line.LN5589097-1"      ,   1,        13.5,         3.6,         0.0,         0.0,         0.0,         0.0
"Line.LN5589097-1"      ,   2,       -13.5,        -3.6
"Line.LN5651975-1"      ,   1,       781.1,       207.5,         0.0,         0.0,         0.0,         0.0
"Line.LN5651975-1"      ,   2,      -780.8,      -207.4
"Line.LN5865236-1"      ,   1,        18.0,         4.8,         0.0,         0.0,         0.0,         0.0
"Line.LN5865236-1"      ,   2,       -18.0,        -4.8
"Line.LN5593232-1"      ,   1,        10.3,         2.7,         0.0,         0.0,         0.0,         0.0
"Line.LN5593232-1"      ,   2,       -10.3,        -2.8
"Line.LN5740283-1"      ,   1,        12.4,         3.3,         0.0,         0.0,         0.0,         0.0
"Line.LN5740283-1"      ,   2,       -12.4,        -3.3
"Line.LN6106559-1"      ,   1,        27.6,         7.3,         0.0,         0.0,         0.0,         0.0
"Line.LN6106559-1"      ,   2,       -27.6,        -7.4
"Line.LN5714056-3"      ,   1,       622.8,       164.8,         0.0,         0.0,         0.0,         0.0
"Line.LN5714056-3"      ,   2,      -622.1,      -164.6
"Line.LN5985355-3"      ,   1,       393.3,       105.1,         0.0,         0.0,         0.0,         0.0
"Line.LN5985355-3"      ,   2,      -392.9,      -105.0
"Line.LN5531956-1"      ,   1,         9.0,         2.4,         0.0,         0.0,         0.0,         0.0
"Line.LN5531956-1"      ,   2,        -9.0,        -2.4
"Line.LN5650048-1"      ,   1,         9.9,         2.6,         0.0,         0.0,         0.0,         0.0
"Line.LN5650048-1"      ,   2,        -9.9,        -2.6
"Line.LN6290203-1"      ,   1,       816.8,       218.4,         0.0,         0.0,         0.0,         0.0
"Line.LN6290203-1"      ,   2,      -816.6,      -218.2
"Line.LN6134414-1"      ,   1,        20.7,         5.5,         0.0,         0.0,         0.0,         0.0
"Line.LN6134414-1"      ,   2,       -20.7,        -5.5
"Line.LN6259998-2"      ,   1,        12.4,         3.3,         0.0,         0.0,         0.0,         0.0
"Line.LN6259998-2"      ,   2,       -12.4,        -3.3
"Line.LN6078767-1"      ,   1,      2823.2,      -158.0,         0.0,         0.0,         0.0,         0.0
"Line.LN6078767-1"      ,   2,     -2822.9,       158.5
"Line.LN6017300-1"      ,   1,         6.2,         1.6,         0.0,         0.0,         0.0,         0.0
"Line.LN6017300-1"      ,   2,        -6.2,        -1.7
"Line.LN8979257-2"      ,   1,        29.2,         7.6,         0.0,         0.0,         0.0,         0.0
"Line.LN8979257-2"      ,   2,       -29.2,        -7.7
"Line.LN81048109-1"     ,   1,        30.0,         7.8,         0.0,         0.0,         0.0,         0.0
"Line.LN81048109-1"     ,   2,       -30.0,        -7.9
"Line.293471"           ,   1,        29.2,         7.8,         0.0,         0.0,         0.0,         0.0
"Line.293471"           ,   2,       -29.2,        -7.8
"Line.LN5534965-2"      ,   1,         9.0,         2.4,         0.0,         0.0,         0.0,         0.0
"Line.LN5534965-2"      ,   2,        -9.0,        -2.4
"Line.LN5655683-1"      ,   1,       141.9,        37.7,         0.0,         0.0,         0.0,         0.0
"Line.LN5655683-1"      ,   2,      -141.9,       -37.7
"Line.LN5686247-1"      ,   1,        13.8,         3.7,         0.0,         0.0,         0.0,         0.0
"Line.LN5686247-1"      ,   2,       -13.8,        -3.7
"Line.LN6048642-1"      ,   1,         0.0,        -0.0,         0.0,         0.0,         0.0,         0.0
"Line.LN6048642-1"      ,   2,         0.0,         0.0
"Line.LN5928544-3"      ,   1,       103.5,        27.5,         0.0,         0.0,         0.0,         0.0
"Line.LN5928544-3"      ,   2,      -103.5,       -27.5
"Line.LN6108172-1"      ,   1,        18.0,         4.8,         0.0,         0.0,         0.0,         0.0
"Line.LN6108172-1"      ,   2,       -18.0,        -4.8
"Line.LN5532754-1"      ,   1,       704.8,       186.9,         0.0,         0.0,         0.0,         0.0
"Line.LN5532754-1"      ,   2,      -704.7,      -186.8
"Line.LN5591834-1"      ,   1,        26.8,         7.1,         0.0,         0.0,         0.0,         0.0
"Line.LN5591834-1"      ,   2,       -26.8,        -7.1
"Line.LN6347196-2"      ,   1,       450.0,       118.9,         0.0,         0.0,         0.0,         0.0
"Line.LN6347196-2"      ,   2,      -449.9,      -118.9
"Line.LN5532741-1"      ,   1,        63.1,        16.7,         0.0,         0.0,         0.0,         0.0
"Line.LN5532741-1"      ,   2,       -63.1,       -16.7
"Line.LN5804803-1"      ,   1,         5.4,         1.4,         0.0,         0.0,         0.0,         0.0
"Line.LN5804803-1"      ,   2,        -5.4,        -1.4
"Line.LN6169248-1"      ,   1,      1650.9,       446.1,         0.0,         0.0,         0.0,         0.0
"Line.LN6169248-1"      ,   2,     -1649.9,      -445.2
"Line.LN5532786-2"      ,   1,        15.8,         4.2,         0.0,         0.0,         0.0,         0.0
"Line.LN5532786-2"      ,   2,       -15.8,        -4.2
"Line.LN5744339-1"      ,   1,       114.5,        30.5,         0.0,         0.0,         0.0,         0.0
"Line.LN5744339-1"      ,   2,      -114.5,       -30.5
"Line.LN5531255-3"      ,   1,       118.1,        31.4,         0.0,         0.0,         0.0,         0.0
"Line.LN5531255-3"      ,   2,      -118.1,       -31.4
"Line.LN5926308-2"      ,   1,       763.5,       203.7,         0.0,         0.0,         0.0,         0.0
"Line.LN5926308-2"      ,   2,      -763.3,      -203.6
"Line.LN5683856-3"      ,   1,         9.0,         2.4,         0.0,         0.0,         0.0,         0.0
"Line.LN5683856-3"      ,   2,        -9.0,        -2.4
"Line.LN6171502-1"      ,   1,        14.4,         3.8,         0.0,         0.0,         0.0,         0.0
"Line.LN6171502-1"      ,   2,       -14.4,        -3.8
"Line.LN5593228-1"      ,   1,         9.9,         2.6,         0.0,         0.0,         0.0,         0.0
"Line.LN5593228-1"      ,   2,        -9.9,        -2.6
"Line.LN6380800-1"      ,   1,         9.9,         2.6,         0.0,         0.0,         0.0,         0.0
"Line.LN6380800-1"      ,   2,        -9.9,        -2.6
"Line.LN6199525-2"      ,   1,         3.6,         1.0,         0.0,         0.0,         0.0,         0.0
"Line.LN6199525-2"      ,   2,        -3.6,        -1.0
"Line.LN5772710-2"      ,   1,        72.0,        19.2,         0.0,         0.0,         0.0,         0.0
"Line.LN5772710-2"      ,   2,       -72.0,       -19.2
"Line.LN8961760-1"      ,   1,        36.3,         9.5,         0.0,         0.0,         0.0,         0.0
"Line.LN8961760-1"      ,   2,       -36.3,        -9.5
"Line.LN6047556-1"      ,   1,        10.3,         2.7,         0.0,         0.0,         0.0,         0.0
"Line.LN6047556-1"      ,   2,       -10.3,        -2.8
"Line.LN6138603-1"      ,   1,        15.8,         4.2,         0.0,         0.0,         0.0,         0.0
"Line.LN6138603-1"      ,   2,       -15.8,        -4.2
"Line.LN6108139-1"      ,   1,         5.9,         1.6,         0.0,         0.0,         0.0,         0.0
"Line.LN6108139-1"      ,   2,        -5.9,        -1.6
"Line.LN6388581-2"      ,   1,         5.4,         1.4,         0.0,         0.0,         0.0,         0.0
"Line.LN6388581-2"      ,   2,        -5.4,        -1.4
"Line.LN5774460-1"      ,   1,         5.4,         1.4,         0.0,         0.0,         0.0,         0.0
"Line.LN5774460-1"      ,   2,        -5.4,        -1.4
"Line.LN5624387-1"      ,   1,        15.5,         4.1,         0.0,         0.0,         0.0,         0.0
"Line.LN5624387-1"      ,   2,       -15.5,        -4.1
"Line.LN6137087-1"      ,   1,        82.7,        22.0,         0.0,         0.0,         0.0,         0.0
"Line.LN6137087-1"      ,   2,       -82.7,       -22.0
"Line.LN6077809-1"      ,   1,       103.4,        27.5,         0.0,         0.0,         0.0,         0.0
"Line.LN6077809-1"      ,   2,      -103.4,       -27.5
"Line.LN6440079-1"      ,   1,        26.8,         7.1,         0.0,         0.0,         0.0,         0.0
"Line.LN6440079-1"      ,   2,       -26.8,        -7.1
"Line.LN5804794-1"      ,   1,        82.0,        21.9,         0.0,         0.0,         0.0,         0.0
"Line.LN5804794-1"      ,   2,       -82.0,       -21.9
"Line.LN5654484-1"      ,   1,        10.3,         2.8,         0.0,         0.0,         0.0,         0.0
"Line.LN5654484-1"      ,   2,       -10.3,        -2.8
"Line.LN5774465-1"      ,   1,        18.1,         4.7,         0.0,         0.0,         0.0,         0.0
"Line.LN5774465-1"      ,   2,       -18.1,        -4.7
"Line.LN5473349-1"      ,   1,      6022.7,       629.2,         0.0,         0.0,         0.0,         0.0
"Line.LN5473349-1"      ,   2,     -6021.8,      -627.1
"Line.LN6169253-1"      ,   1,         9.0,         2.4,         0.0,         0.0,         0.0,         0.0
"Line.LN6169253-1"      ,   2,        -9.0,        -2.4
"Line.LN6350536-1"      ,   1,         5.4,         1.4,         0.0,         0.0,         0.0,         0.0
"Line.LN6350536-1"      ,   2,        -5.4,        -1.4
"Line.LN6048523-1"      ,   1,       149.0,        39.6,         0.0,         0.0,         0.0,         0.0
"Line.LN6048523-1"      ,   2,      -148.9,       -39.5
"Line.LN5594152-1"      ,   1,       166.3,        44.3,         0.0,         0.0,         0.0,         0.0
"Line.LN5594152-1"      ,   2,      -166.2,       -44.2
"Line.LN5865248-1"      ,   1,       829.1,       221.2,         0.0,         0.0,         0.0,         0.0
"Line.LN5865248-1"      ,   2,      -828.8,      -221.1
"Line.LN6046143-1"      ,   1,         3.9,         1.0,         0.0,         0.0,         0.0,         0.0
"Line.LN6046143-1"      ,   2,        -3.9,        -1.1
"Line.LN5803287-1"      ,   1,        20.8,         5.5,         0.0,         0.0,         0.0,         0.0
"Line.LN5803287-1"      ,   2,       -20.8,        -5.5
"Line.LN5589094-1"      ,   1,       230.0,        61.6,         0.0,         0.0,         0.0,         0.0
"Line.LN5589094-1"      ,   2,      -229.8,       -61.6
"Line.LN5954983-1"      ,   1,       118.1,        31.4,         0.0,         0.0,         0.0,         0.0
"Line.LN5954983-1"      ,   2,      -118.0,       -31.4
"Line.LN5924696-2"      ,   1,         5.4,         1.4,         0.0,         0.0,         0.0,         0.0
"Line.LN5924696-2"      ,   2,        -5.4,        -1.4
"Line.LN6506311-4"      ,   1,         6.2,         1.6,         0.0,         0.0,         0.0,         0.0
"Line.LN6506311-4"      ,   2,        -6.2,        -1.6
"Line.LN5653493-1"      ,   1,       117.7,        31.3,         0.0,         0.0,         0.0,         0.0
"Line.LN5653493-1"      ,   2,      -117.7,       -31.3
"Line.LN5684836-1"      ,   1,      6117.9,       670.6,         0.0,         0.0,         0.0,         0.0
"Line.LN5684836-1"      ,   2,     -6115.1,      -663.8
"Line.LN5715016-3"      ,   1,         5.4,         1.4,         0.0,         0.0,         0.0,         0.0
"Line.LN5715016-3"      ,   2,        -5.4,        -1.4
"Line.LN6138614-1"      ,   1,       880.9,      -698.8,         0.0,         0.0,         0.0,         0.0
"Line.LN6138614-1"      ,   2,      -880.0,       699.1
"Line.LN6077781-2"      ,   1,      5017.4,      1376.3,         0.0,         0.0,         0.0,         0.0
"Line.LN6077781-2"      ,   2,     -5007.7,     -1367.1
"Line.LN5675121-1"      ,   1,         4.1,         1.1,         0.0,         0.0,         0.0,         0.0
"Line.LN5675121-1"      ,   2,        -4.1,        -1.1
"Line.LN5773046-1"      ,   1,       244.2,        65.1,         0.0,         0.0,         0.0,         0.0
"Line.LN5773046-1"      ,   2,      -244.1,       -65.1
"Line.LN6380809-2"      ,   1,       729.8,       196.1,         0.0,         0.0,         0.0,         0.0
"Line.LN6380809-2"      ,   2,      -729.7,      -196.1
"Line.LN6018326-1"      ,   1,        12.4,         3.3,         0.0,         0.0,         0.0,         0.0
"Line.LN6018326-1"      ,   2,       -12.4,        -3.3
"Line.LN5472356-1"      ,   1,         3.9,         1.0,         0.0,         0.0,         0.0,         0.0
"Line.LN5472356-1"      ,   2,        -3.9,        -1.1
"Line.LN6139641-1"      ,   1,      7433.0,      1306.8,         0.0,         0.0,         0.0,         0.0
"Line.LN6139641-1"      ,   2,     -7430.7,     -1301.3
"Line.LN6018341-1"      ,   1,      2654.3,      -215.9,         0.0,         0.0,         0.0,         0.0
"Line.LN6018341-1"      ,   2,     -2653.5,       217.5
"Line.LN6017302-1"      ,   1,       290.9,        77.7,         0.0,         0.0,         0.0,         0.0
"Line.LN6017302-1"      ,   2,      -290.8,       -77.7
"Line.LN6199505-1"      ,   1,         3.9,         1.0,         0.0,         0.0,         0.0,         0.0
"Line.LN6199505-1"      ,   2,        -3.9,        -1.1
"Line.LN5682327-1"      ,   1,       136.1,        36.3,         0.0,         0.0,         0.0,         0.0
"Line.LN5682327-1"      ,   2,      -136.1,       -36.3
"Line.LN6290243-1"      ,   1,        19.9,         5.3,         0.0,         0.0,         0.0,         0.0
"Line.LN6290243-1"      ,   2,       -19.9,        -5.3
"Line.X8223_48332_SW"   ,   1,      1384.3,      -562.7,         0.0,         0.0,         0.0,         0.0
"Line.X8223_48332_SW"   ,   2,     -1384.3,       562.7
"Line.LN6413567-3"      ,   1,      1384.6,      -562.6,         0.0,         0.0,         0.0,         0.0
"Line.LN6413567-3"      ,   2,     -1384.3,       562.7
"Line.LN5591731-3"      ,   1,      6355.2,       804.4,         0.0,         0.0,         0.0,         0.0
"Line.LN5591731-3"      ,   2,     -6355.2,      -804.2
"Line.LN5653470-1"      ,   1,        29.2,         7.8,         0.0,         0.0,         0.0,         0.0
"Line.LN5653470-1"      ,   2,       -29.2,        -7.8
"Line.LN6017316-1"      ,   1,       243.1,        64.8,         0.0,         0.0,         0.0,         0.0
"Line.LN6017316-1"      ,   2,      -242.8,       -64.7
"Line.LN5926299-1"      ,   1,        19.8,         5.3,         0.0,         0.0,         0.0,         0.0
"Line.LN5926299-1"      ,   2,       -19.8,        -5.3
"Line.LN5683831-1"      ,   1,       861.0,       229.7,         0.0,         0.0,         0.0,         0.0
"Line.LN5683831-1"      ,   2,      -860.5,      -229.5
"Line.LN6352700-1"      ,   1,        36.0,         9.6,         0.0,         0.0,         0.0,         0.0
"Line.LN6352700-1"      ,   2,       -36.0,        -9.6
"Line.LN6047570-1"      ,   1,         5.4,         1.4,         0.0,         0.0,         0.0,         0.0
"Line.LN6047570-1"      ,   2,        -5.4,        -1.4
"Line.LN5624342-1"      ,   1,      6159.3,       697.8,         0.0,         0.0,         0.0,         0.0
"Line.LN5624342-1"      ,   2,     -6157.0,      -692.2
"Line.LN6259992-1"      ,   1,         9.0,         2.4,         0.0,         0.0,         0.0,         0.0
"Line.LN6259992-1"      ,   2,        -9.0,        -2.4
"Line.LN5841919-1"      ,   1,         5.9,         1.6,         0.0,         0.0,         0.0,         0.0
"Line.LN5841919-1"      ,   2,        -5.9,        -1.6
"Line.LN6380811-1"      ,   1,       112.8,        29.9,         0.0,         0.0,         0.0,         0.0
"Line.LN6380811-1"      ,   2,      -112.8,       -29.9
"Line.LN5683832-1"      ,   1,         9.0,         2.4,         0.0,         0.0,         0.0,         0.0
"Line.LN5683832-1"      ,   2,        -9.0,        -2.4
"Line.LN6077778-1"      ,   1,         9.0,         2.4,         0.0,         0.0,         0.0,         0.0
"Line.LN6077778-1"      ,   2,        -9.0,        -2.4
"Line.LN5561442-2"      ,   1,      7347.0,      1209.3,         0.0,         0.0,         0.0,         0.0
"Line.LN5561442-2"      ,   2,     -7343.7,     -1201.6
"Line.LN6259983-1"      ,   1,         9.9,         2.6,         0.0,         0.0,         0.0,         0.0
"Line.LN6259983-1"      ,   2,        -9.9,        -2.6
"Line.LN5865244-1"      ,   1,       111.0,        29.4,         0.0,         0.0,         0.0,         0.0
"Line.LN5865244-1"      ,   2,      -111.0,       -29.4
"Line.LN6350555-1"      ,   1,         5.9,         1.6,         0.0,         0.0,         0.0,         0.0
"Line.LN6350555-1"      ,   2,        -5.9,        -1.6
"Line.LN5714039-1"      ,   1,        39.6,        10.6,         0.0,         0.0,         0.0,         0.0
"Line.LN5714039-1"      ,   2,       -39.6,       -10.6
"Line.LN5889821-1"      ,   1,      6282.4,       756.8,         0.0,         0.0,         0.0,         0.0
"Line.LN5889821-1"      ,   2,     -6278.6,      -747.8
"Line.LN5804791-1"      ,   1,      1247.7,      -599.4,         0.0,         0.0,         0.0,         0.0
"Line.LN5804791-1"      ,   2,     -1246.2,       599.9
"Line.LN5653486-1"      ,   1,        31.1,         8.3,         0.0,         0.0,         0.0,         0.0
"Line.LN5653486-1"      ,   2,       -31.1,        -8.3
"Line.LN5926286-1"      ,   1,        30.6,         8.1,         0.0,         0.0,         0.0,         0.0
"Line.LN5926286-1"      ,   2,       -30.6,        -8.2
"Line.LN6318859-1"      ,   1,        -0.0,        -0.0,         0.0,         0.0,         0.0,         0.0
"Line.LN6318859-1"      ,   2,         0.0,         0.0
"Line.LN5926316-1"      ,   1,        80.0,        21.4,         0.0,         0.0,         0.0,         0.0
"Line.LN5926316-1"      ,   2,       -80.0,       -21.4
"Line.LN5591703-1"      ,   1,        17.8,         4.7,         0.0,         0.0,         0.0,         0.0
"Line.LN5591703-1"      ,   2,       -17.8,        -4.7
"Line.LN5531333-1"      ,   1,        36.1,         9.6,         0.0,         0.0,         0.0,         0.0
"Line.LN5531333-1"      ,   2,       -36.1,        -9.6
"Line.LN6047581-1"      ,   1,         5.9,         1.6,         0.0,         0.0,         0.0,         0.0
"Line.LN6047581-1"      ,   2,        -5.9,        -1.6
"Line.LN6349077-1"      ,   1,         0.0,        -0.0,         0.0,         0.0,         0.0,         0.0
"Line.LN6349077-1"      ,   2,        -0.0,        -0.0
"Line.LN6350574-1"      ,   1,       190.9,        50.2,         0.0,         0.0,         0.0,         0.0
"Line.LN6350574-1"      ,   2,      -190.9,       -50.3
"Line.LN6320343-1"      ,   1,       121.7,        32.4,         0.0,         0.0,         0.0,         0.0
"Line.LN6320343-1"      ,   2,      -121.7,       -32.4
"Line.LN81048100-5"     ,   1,       184.8,        48.6,         0.0,         0.0,         0.0,         0.0
"Line.LN81048100-5"     ,   2,      -184.8,       -48.6
"Line.LN6348946-1"      ,   1,         9.9,         2.6,         0.0,         0.0,         0.0,         0.0
"Line.LN6348946-1"      ,   2,        -9.9,        -2.6
"Line.LN5744351-1"      ,   1,        10.3,         2.8,         0.0,         0.0,         0.0,         0.0
"Line.LN5744351-1"      ,   2,       -10.3,        -2.8
"Line.LN5472342-1"      ,   1,         5.4,         1.4,         0.0,         0.0,         0.0,         0.0
"Line.LN5472342-1"      ,   2,        -5.4,        -1.4
"Line.LN5621849-1"      ,   1,        26.8,         7.2,         0.0,         0.0,         0.0,         0.0
"Line.LN5621849-1"      ,   2,       -26.8,        -7.2
"Line.LN6379375-1"      ,   1,         5.4,         1.4,         0.0,         0.0,         0.0,         0.0
"Line.LN6379375-1"      ,   2,        -5.4,        -1.4
"Line.LN6028890-1"      ,   1,        49.0,        13.0,         0.0,         0.0,         0.0,         0.0
"Line.LN6028890-1"      ,   2,       -49.0,       -13.1
"Line.LN6380822-1"      ,   1,      1374.9,       368.8,         0.0,         0.0,         0.0,         0.0
"Line.LN6380822-1"      ,   2,     -1374.0,      -368.0
"Line.LN5835131-1"      ,   1,       801.7,       214.2,         0.0,         0.0,         0.0,         0.0
"Line.LN5835131-1"      ,   2,      -801.5,      -214.1
"Line.LN5803262-7"      ,   1,         4.1,         1.1,         0.0,         0.0,         0.0,         0.0
"Line.LN5803262-7"      ,   2,        -4.1,        -1.1
"Line.LN81048089-1"     ,   1,       104.5,        27.5,         0.0,         0.0,         0.0,         0.0
"Line.LN81048089-1"     ,   2,      -104.5,       -27.6
"Line.LN6201699-1"      ,   1,        14.4,         3.8,         0.0,         0.0,         0.0,         0.0
"Line.LN6201699-1"      ,   2,       -14.4,        -3.8
"Line.LN5746548-1"      ,   1,       680.9,       180.4,         0.0,         0.0,         0.0,         0.0
"Line.LN5746548-1"      ,   2,      -680.8,      -180.4
"Line.LN5835174-1"      ,   1,       253.5,        67.5,         0.0,         0.0,         0.0,         0.0
"Line.LN5835174-1"      ,   2,      -253.1,       -67.3
"Line.LN6505947-4"      ,   1,       121.8,        32.3,         0.0,         0.0,         0.0,         0.0
"Line.LN6505947-4"      ,   2,      -121.8,       -32.3
"Line.LN5683833-1"      ,   1,       206.6,        55.1,         0.0,         0.0,         0.0,         0.0
"Line.LN5683833-1"      ,   2,      -206.3,       -55.0
"Line.LN5561439-3"      ,   1,       493.1,       131.8,         0.0,         0.0,         0.0,         0.0
"Line.LN5561439-3"      ,   2,      -492.9,      -131.6
"Line.LN6109190-1"      ,   1,        31.6,         8.4,         0.0,         0.0,         0.0,         0.0
"Line.LN6109190-1"      ,   2,       -31.5,        -8.4
"Line.LN6258435-2"      ,   1,        18.0,         4.8,         0.0,         0.0,         0.0,         0.0
"Line.LN6258435-2"      ,   2,       -18.0,        -4.8
"Line.LN5804819-1"      ,   1,         5.9,         1.6,         0.0,         0.0,         0.0,         0.0
"Line.LN5804819-1"      ,   2,        -5.9,        -1.6
"Line.LN5593215-1"      ,   1,       216.7,        57.6,         0.0,         0.0,         0.0,         0.0
"Line.LN5593215-1"      ,   2,      -216.6,       -57.6
"Line.LN5833717-1"      ,   1,      1025.0,       275.9,         0.0,         0.0,         0.0,         0.0
"Line.LN5833717-1"      ,   2,     -1024.7,      -275.7
"Line.LN6199557-1"      ,   1,      1009.9,       271.7,         0.0,         0.0,         0.0,         0.0
"Line.LN6199557-1"      ,   2,     -1009.4,      -271.3
"Line.LN5744332-1"      ,   1,         6.2,         1.6,         0.0,         0.0,         0.0,         0.0
"Line.LN5744332-1"      ,   2,        -6.2,        -1.7
"Line.LN5558790-1"      ,   1,      7522.9,      1385.6,        49.8,         9.2,         0.0,         0.0
"Line.LN5558790-1"      ,   2,     -7522.0,     -1383.6
"Line.LN6078692-1"      ,   1,       218.4,        58.3,         0.0,         0.0,         0.0,         0.0
"Line.LN6078692-1"      ,   2,      -218.4,       -58.3
"Line.LN5956482-1"      ,   1,       346.5,        92.4,         0.0,         0.0,         0.0,         0.0
"Line.LN5956482-1"      ,   2,      -346.4,       -92.4
"Line.LN5593225-1"      ,   1,         9.9,         2.6,         0.0,         0.0,         0.0,         0.0
"Line.LN5593225-1"      ,   2,        -9.9,        -2.6
"Line.LN6900591-26"     ,   1,        73.1,        19.5,         0.0,         0.0,         0.0,         0.0
"Line.LN6900591-26"     ,   2,       -73.1,       -19.5
"Line.LN5952393-1"      ,   1,        40.5,        10.8,         0.0,         0.0,         0.0,         0.0
"Line.LN5952393-1"      ,   2,       -40.5,       -10.8
"Line.LN6350531-1"      ,   1,        39.5,        10.4,         0.0,         0.0,         0.0,         0.0
"Line.LN6350531-1"      ,   2,       -39.5,       -10.4
"Line.LN5965099-10"     ,   1,       297.1,        77.9,         0.0,         0.0,         0.0,         0.0
"Line.LN5965099-10"     ,   2,      -297.0,       -77.9
"Line.LN6047568-1"      ,   1,       239.6,        64.1,         0.0,         0.0,         0.0,         0.0
"Line.LN6047568-1"      ,   2,      -239.2,       -63.9
"Line.LN5926292-1"      ,   1,         9.9,         2.6,         0.0,         0.0,         0.0,         0.0
"Line.LN5926292-1"      ,   2,        -9.9,        -2.6
"Line.LN6380806-1"      ,   1,        23.4,         6.2,         0.0,         0.0,         0.0,         0.0
"Line.LN6380806-1"      ,   2,       -23.4,        -6.2
"Line.LN6341781-3"      ,   1,         9.0,         2.4,         0.0,         0.0,         0.0,         0.0
"Line.LN6341781-3"      ,   2,        -9.0,        -2.4
"Line.LN8979367-1"      ,   1,        13.5,         3.3,         0.0,         0.0,         0.0,         0.0
"Line.LN8979367-1"      ,   2,       -13.5,        -3.4
"Line.LN6018340-1"      ,   1,        18.8,         5.0,         0.0,         0.0,         0.0,         0.0
"Line.LN6018340-1"      ,   2,       -18.8,        -5.0
"Line.LN6380847-1"      ,   1,       620.1,       165.4,         0.0,         0.0,         0.0,         0.0
"Line.LN6380847-1"      ,   2,      -619.6,      -165.3
"Line.LN8961797-1"      ,   1,        20.8,         5.4,         0.0,         0.0,         0.0,         0.0
"Line.LN8961797-1"      ,   2,       -20.8,        -5.5
"Line.LN6077797-1"      ,   1,        39.6,        10.5,         0.0,         0.0,         0.0,         0.0
"Line.LN6077797-1"      ,   2,       -39.6,       -10.5
"Line.LN6077773-1"      ,   1,        44.5,        11.8,         0.0,         0.0,         0.0,         0.0
"Line.LN6077773-1"      ,   2,       -44.5,       -11.8
"Line.LN5837496-4"      ,   1,         9.0,         2.4,         0.0,         0.0,         0.0,         0.0
"Line.LN5837496-4"      ,   2,        -9.0,        -2.4
"Line.LN5623392-1"      ,   1,        31.0,         8.2,         0.0,         0.0,         0.0,         0.0
"Line.LN5623392-1"      ,   2,       -31.0,        -8.3
"Line.LN5624380-1"      ,   1,        21.7,         5.7,         0.0,         0.0,         0.0,         0.0
"Line.LN5624380-1"      ,   2,       -21.7,        -5.7
"Line.LN6422809-2"      ,   1,      2698.0,       733.1,         0.0,         0.0,         0.0,         0.0
"Line.LN6422809-2"      ,   2,     -2697.9,      -733.0
"Line.LN5799561-1"      ,   1,      3064.9,       -76.0,         0.0,         0.0,         0.0,         0.0
"Line.LN5799561-1"      ,   2,     -3063.9,        78.5
"Line.LN6229818-1"      ,   1,         5.9,         1.6,         0.0,         0.0,         0.0,         0.0
"Line.LN6229818-1"      ,   2,        -5.9,        -1.6
"Line.LN5593230-1"      ,   1,       274.0,        73.5,         0.0,         0.0,         0.0,         0.0
"Line.LN5593230-1"      ,   2,      -273.8,       -73.4
"Line.LN5563901-3"      ,   1,      6269.0,       733.6,         0.0,         0.0,         0.0,         0.0
"Line.LN5563901-3"      ,   2,     -6267.0,      -728.8
"Line.LN6320339-1"      ,   1,        33.3,         8.8,         0.0,         0.0,         0.0,         0.0
"Line.LN6320339-1"      ,   2,       -33.3,        -8.8
"Line.LN5986927-1"      ,   1,         9.0,         2.4,         0.0,         0.0,         0.0,         0.0
"Line.LN5986927-1"      ,   2,        -9.0,        -2.4
"Line.LN6047567-1"      ,   1,         9.9,         2.6,         0.0,         0.0,         0.0,         0.0
"Line.LN6047567-1"      ,   2,        -9.9,        -2.6
"Line.LN5714047-1"      ,   1,       122.8,        32.6,         0.0,         0.0,         0.0,         0.0
"Line.LN5714047-1"      ,   2,      -122.7,       -32.6
"Line.LN5563934-1"      ,   1,        49.4,        13.1,         0.0,         0.0,         0.0,         0.0
"Line.LN5563934-1"      ,   2,       -49.4,       -13.1
"Line.LN6169249-3"      ,   1,        10.3,         2.7,         0.0,         0.0,         0.0,         0.0
"Line.LN6169249-3"      ,   2,       -10.3,        -2.7
"Line.LN6230800-1"      ,   1,         9.9,         2.6,         0.0,         0.0,         0.0,         0.0
"Line.LN6230800-1"      ,   2,        -9.9,        -2.6
"Line.LN5985339-2"      ,   1,        14.4,         3.8,         0.0,         0.0,         0.0,         0.0
"Line.LN5985339-2"      ,   2,       -14.4,        -3.8
"Line.LN5898059-3"      ,   1,        12.6,         3.4,         0.0,         0.0,         0.0,         0.0
"Line.LN5898059-3"      ,   2,       -12.6,        -3.4
"Line.LN5956457-2"      ,   1,       776.6,       206.9,         0.0,         0.0,         0.0,         0.0
"Line.LN5956457-2"      ,   2,      -776.6,      -206.9
"Line.LN5865229-1"      ,   1,        99.0,        26.1,         0.0,         0.0,         0.0,         0.0
"Line.LN5865229-1"      ,   2,       -98.9,       -26.1
"Line.LN6018331-1"      ,   1,      3003.5,       -98.9,         0.0,         0.0,         0.0,         0.0
"Line.LN6018331-1"      ,   2,     -3002.9,       100.3
"Line.LN6199535-1"      ,   1,        10.3,         2.7,         0.0,         0.0,         0.0,         0.0
"Line.LN6199535-1"      ,   2,       -10.3,        -2.7
"Line.LN5502538-1"      ,   1,       765.7,       203.3,         0.0,         0.0,         0.0,         0.0
"Line.LN5502538-1"      ,   2,      -765.0,      -203.1
"Line.LN5742816-2"      ,   1,        69.3,        18.4,         0.0,         0.0,         0.0,         0.0
"Line.LN5742816-2"      ,   2,       -69.3,       -18.4
"Line.LN6229803-3"      ,   1,        10.3,         2.8,         0.0,         0.0,         0.0,         0.0
"Line.LN6229803-3"      ,   2,       -10.3,        -2.8
"Line.LN5986930-1"      ,   1,        91.2,        24.1,         0.0,         0.0,         0.0,         0.0
"Line.LN5986930-1"      ,   2,       -91.1,       -24.1
"Line.LN6350532-1"      ,   1,         9.0,         2.4,         0.0,         0.0,         0.0,         0.0
"Line.LN6350532-1"      ,   2,        -9.0,        -2.4
"Line.LN5588016-3"      ,   1,       107.8,        28.7,         0.0,         0.0,         0.0,         0.0
"Line.LN5588016-3"      ,   2,      -107.8,       -28.6
...
"Line.V7173_48332_SW"   ,   1,      5808.2,       424.1,         0.0,         0.0,         0.0,         0.0
"Line.V7173_48332_SW"   ,   2,     -5808.0,      -423.9
"Line.LN5534969-2"      ,   1,      5809.0,       426.0,         0.0,         0.0,         0.0,         0.0
"Line.LN5534969-2"      ,   2,     -5808.2,      -424.1
"Line.LN6015891-1"      ,   1,         0.0,        -0.0,         0.0,         0.0,         0.0,         0.0
"Line.LN6015891-1"      ,   2,        -0.0,        -0.0
"Line.LN5683816-1"      ,   1,       655.9,       176.1,         0.0,         0.0,         0.0,         0.0
"Line.LN5683816-1"      ,   2,      -655.2,      -175.9
"Line.LN6199561-1"      ,   1,        15.5,         4.1,         0.0,         0.0,         0.0,         0.0
"Line.LN6199561-1"      ,   2,       -15.5,        -4.1
"Line.LN6900591-12"     ,   1,        46.0,        12.3,         0.0,         0.0,         0.0,         0.0
"Line.LN6900591-12"     ,   2,       -46.0,       -12.3
"Line.LN6411363-1"      ,   1,        13.5,         3.6,         0.0,         0.0,         0.0,         0.0
"Line.LN6411363-1"      ,   2,       -13.5,        -3.6
"Line.LN6108130-6"      ,   1,         5.9,         1.6,         0.0,         0.0,         0.0,         0.0
"Line.LN6108130-6"      ,   2,        -5.9,        -1.6
"Line.LN5837516-1"      ,   1,        14.4,         3.8,         0.0,         0.0,         0.0,         0.0
"Line.LN5837516-1"      ,   2,       -14.4,        -3.8
"Line.LN6017301-4"      ,   1,         9.0,         2.4,         0.0,         0.0,         0.0,         0.0
"Line.LN6017301-4"      ,   2,        -9.0,        -2.4
"Line.LN5981121-1"      ,   1,         3.9,         1.0,         0.0,         0.0,         0.0,         0.0
"Line.LN5981121-1"      ,   2,        -3.9,        -1.1
"Line.LN81048107-4"     ,   1,        30.0,         7.8,         0.0,         0.0,         0.0,         0.0
"Line.LN81048107-4"     ,   2,       -30.0,        -7.8
"Line.LN5472374-1"      ,   1,       156.5,        41.6,         0.0,         0.0,         0.0,         0.0
"Line.LN5472374-1"      ,   2,      -156.4,       -41.5
"Line.LN5746550-2"      ,   1,         5.9,         1.6,         0.0,         0.0,         0.0,         0.0
"Line.LN5746550-2"      ,   2,        -5.9,        -1.6
"Line.LN5561437-1"      ,   1,       249.7,        65.7,         0.0,         0.0,         0.0,         0.0
"Line.LN5561437-1"      ,   2,      -249.6,       -65.7
"Line.LN6439986-3"      ,   1,        10.3,         2.8,         0.0,         0.0,         0.0,         0.0
"Line.LN6439986-3"      ,   2,       -10.3,        -2.8
"Line.LN5744324-1"      ,   1,        49.6,        13.1,         0.0,         0.0,         0.0,         0.0
"Line.LN5744324-1"      ,   2,       -49.6,       -13.2
"Line.LN6376708-1"      ,   1,        24.7,         6.6,         0.0,         0.0,         0.0,         0.0
"Line.LN6376708-1"      ,   2,       -24.7,        -6.6
"Line.LN5895816-2"      ,   1,        74.8,        19.9,         0.0,         0.0,         0.0,         0.0
"Line.LN5895816-2"      ,   2,       -74.8,       -19.9
"Line.LN5593235-1"      ,   1,        10.3,         2.7,         0.0,         0.0,         0.0,         0.0
"Line.LN5593235-1"      ,   2,       -10.3,        -2.7
"Line.LN81354563-2"     ,   1,        83.4,        22.0,         0.0,         0.0,         0.0,         0.0
"Line.LN81354563-2"     ,   2,       -83.4,       -22.0
"Line.LN5866260-1"      ,   1,        15.5,         4.1,         0.0,         0.0,         0.0,         0.0
"Line.LN5866260-1"      ,   2,       -15.5,        -4.1
"Line.LN6018243-1"      ,   1,        56.9,        15.1,         0.0,         0.0,         0.0,         0.0
"Line.LN6018243-1"      ,   2,       -56.8,       -15.2
"Line.LN5928743-3"      ,   1,        13.8,         3.6,         0.0,         0.0,         0.0,         0.0
"Line.LN5928743-3"      ,   2,       -13.8,        -3.6
"Line.LN5957501-1"      ,   1,         6.2,         1.6,         0.0,         0.0,         0.0,         0.0
"Line.LN5957501-1"      ,   2,        -6.2,        -1.7
"Line.LN6379357-1"      ,   1,        41.5,        11.0,         0.0,         0.0,         0.0,         0.0
"Line.LN6379357-1"      ,   2,       -41.5,       -11.0
"Line.LN6291252-2"      ,   1,      2660.0,      -213.8,         0.0,         0.0,         0.0,         0.0
"Line.LN6291252-2"      ,   2,     -2659.7,       214.5
"Line.LN6440002-3"      ,   1,       133.5,        35.6,         0.0,         0.0,         0.0,         0.0
"Line.LN6440002-3"      ,   2,      -133.5,       -35.6
"Line.LN6076346-1"      ,   1,       555.4,       148.3,         0.0,         0.0,         0.0,         0.0
"Line.LN6076346-1"      ,   2,      -554.5,      -147.9
"Line.LN8978752-1"      ,   1,       291.9,        78.8,         0.0,         0.0,         0.0,         0.0
"Line.LN8978752-1"      ,   2,      -291.9,       -78.9
"Line.LN5621834-1"      ,   1,        37.0,         9.8,         0.0,         0.0,         0.0,         0.0
"Line.LN5621834-1"      ,   2,       -36.9,        -9.8
"Line.LN6108123-1"      ,   1,         5.9,         1.6,         0.0,         0.0,         0.0,         0.0
"Line.LN6108123-1"      ,   2,        -5.9,        -1.6
"Line.LN6505952-4"      ,   1,         7.9,         2.1,         0.0,         0.0,         0.0,         0.0
"Line.LN6505952-4"      ,   2,        -7.9,        -2.1
"Line.LN5835159-1"      ,   1,         5.9,         1.6,         0.0,         0.0,         0.0,         0.0
"Line.LN5835159-1"      ,   2,        -5.9,        -1.6
"Line.LN5698090-2"      ,   1,        73.7,        19.0,         0.0,         0.0,         0.0,         0.0
"Line.LN5698090-2"      ,   2,       -73.7,       -19.0
"Line.LN5714050-1"      ,   1,        14.4,         3.8,         0.0,         0.0,         0.0,         0.0
"Line.LN5714050-1"      ,   2,       -14.4,        -3.8
"Line.LN5502529-1"      ,   1,        14.9,         4.0,         0.0,         0.0,         0.0,         0.0
"Line.LN5502529-1"      ,   2,       -14.9,        -4.0
"Line.LN5594236-1"      ,   1,      3057.5,       -82.0,         0.0,         0.0,         0.0,         0.0
"Line.LN5594236-1"      ,   2,     -3056.9,        83.3
"Line.LN5593248-1"      ,   1,         5.9,         1.6,         0.0,         0.0,         0.0,         0.0
"Line.LN5593248-1"      ,   2,        -5.9,        -1.6
"Line.LN5865272-1"      ,   1,       538.7,       143.8,         0.0,         0.0,         0.0,         0.0
"Line.LN5865272-1"      ,   2,      -538.4,      -143.8
"Line.LN5924696-3"      ,   1,         5.4,         1.4,         0.0,         0.0,         0.0,         0.0
"Line.LN5924696-3"      ,   2,        -5.4,        -1.4
"Line.LN5589096-1"      ,   1,         9.0,         2.4,         0.0,         0.0,         0.0,         0.0
"Line.LN5589096-1"      ,   2,        -9.0,        -2.4
"Line.LN6017295-1"      ,   1,       319.8,        85.8,         0.0,         0.0,         0.0,         0.0
"Line.LN6017295-1"      ,   2,      -319.4,       -85.5
"Line.LN5970852-1"      ,   1,       203.9,        53.7,         0.0,         0.0,         0.0,         0.0
"Line.LN5970852-1"      ,   2,      -203.8,       -53.7
"Line.LN5683820-1"      ,   1,        10.3,         2.8,         0.0,         0.0,         0.0,         0.0
"Line.LN5683820-1"      ,   2,       -10.3,        -2.8
"Line.LN6286966-3"      ,   1,         5.9,         1.6,         0.0,         0.0,         0.0,         0.0
"Line.LN6286966-3"      ,   2,        -5.9,        -1.6
"Line.LN6167715-1"      ,   1,         5.9,         1.6,         0.0,         0.0,         0.0,         0.0
"Line.LN6167715-1"      ,   2,        -5.9,        -1.6
"Line.LN6108140-2"      ,   1,         9.0,         2.4,         0.0,         0.0,         0.0,         0.0
"Line.LN6108140-2"      ,   2,        -9.0,        -2.4
"Line.LN6228279-1"      ,   1,        19.8,         5.3,         0.0,         0.0,         0.0,         0.0
"Line.LN6228279-1"      ,   2,       -19.8,        -5.3
"Line.LN5803264-2"      ,   1,         9.0,         2.4,         0.0,         0.0,         0.0,         0.0
"Line.LN5803264-2"      ,   2,        -9.0,        -2.4
"Line.LN6132680-1"      ,   1,       631.5,       169.5,         0.0,         0.0,         0.0,         0.0
"Line.LN6132680-1"      ,   2,      -630.5,      -169.1
"Line.LN5531195-1"      ,   1,      2170.9,      -349.4,         0.0,         0.0,         0.0,         0.0
"Line.LN5531195-1"      ,   2,     -2170.7,       349.8
"Line.LN5985361-1"      ,   1,       574.4,       151.1,         0.0,         0.0,         0.0,         0.0
"Line.LN5985361-1"      ,   2,      -573.7,      -150.9
"Line.LN6102293-1"      ,   1,        32.4,         8.6,         0.0,         0.0,         0.0,         0.0
"Line.LN6102293-1"      ,   2,       -32.4,        -8.6
"Line.LN8989758-1"      ,   1,        58.7,        15.5,         0.0,         0.0,         0.0,         0.0
"Line.LN8989758-1"      ,   2,       -58.7,       -15.5
"Line.LN6229790-1"      ,   1,        25.9,         6.9,         0.0,         0.0,         0.0,         0.0
"Line.LN6229790-1"      ,   2,       -25.9,        -6.9
"Line.LN5956469-1"      ,   1,        20.7,         5.5,         0.0,         0.0,         0.0,         0.0
"Line.LN5956469-1"      ,   2,       -20.7,        -5.5
"Line.LN5803270-3"      ,   1,        16.5,         4.4,         0.0,         0.0,         0.0,         0.0
"Line.LN5803270-3"      ,   2,       -16.5,        -4.4
"Line.LN81048102-6"     ,   1,       122.7,        32.3,         0.0,         0.0,         0.0,         0.0
"Line.LN81048102-6"     ,   2,      -122.6,       -32.3
"Line.LN6440070-1"      ,   1,         0.0,        -0.0,         0.0,         0.0,         0.0,         0.0
"Line.LN6440070-1"      ,   2,        -0.0,         0.0
"Line.LN6048626-1"      ,   1,      7442.2,      1320.0,         0.0,         0.0,         0.0,         0.0
"Line.LN6048626-1"      ,   2,     -7438.9,     -1312.2
"Line.LN6076248-1"      ,   1,       368.9,        98.8,         0.0,         0.0,         0.0,         0.0
"Line.LN6076248-1"      ,   2,      -368.7,       -98.7
"Line.LN6137083-1"      ,   1,         0.0,        -0.0,         0.0,         0.0,         0.0,         0.0
"Line.LN6137083-1"      ,   2,         0.0,         0.0
"Line.LN6286261-1"      ,   1,        14.9,         3.9,         0.0,         0.0,         0.0,         0.0
"Line.LN6286261-1"      ,   2,       -14.9,        -4.0
"Line.LN5653477-1"      ,   1,        14.9,         4.0,         0.0,         0.0,         0.0,         0.0
"Line.LN5653477-1"      ,   2,       -14.9,        -4.0
"Line.LN6078810-1"      ,   1,        13.5,         3.6,         0.0,         0.0,         0.0,         0.0
"Line.LN6078810-1"      ,   2,       -13.5,        -3.6
"Line.LN6199526-1"      ,   1,         5.4,         1.4,         0.0,         0.0,         0.0,         0.0
"Line.LN6199526-1"      ,   2,        -5.4,        -1.4
"Line.LN6108125-2"      ,   1,      5825.6,       457.2,         0.0,         0.0,         0.0,         0.0
"Line.LN6108125-2"      ,   2,     -5823.6,      -452.5
"Line.LN6108149-1"      ,   1,        12.6,         3.3,         0.0,         0.0,         0.0,         0.0
"Line.LN6108149-1"      ,   2,       -12.6,        -3.3
"Line.LN6230759-1"      ,   1,         5.9,         1.6,         0.0,         0.0,         0.0,         0.0
"Line.LN6230759-1"      ,   2,        -5.9,        -1.6
"Line.LN8979249-1"      ,   1,        58.8,        15.5,         0.0,         0.0,         0.0,         0.0
"Line.LN8979249-1"      ,   2,       -58.8,       -15.5
"Line.LN5865237-1"      ,   1,         5.9,         1.6,         0.0,         0.0,         0.0,         0.0
"Line.LN5865237-1"      ,   2,        -5.9,        -1.6
"Line.LN5706733-2"      ,   1,        20.6,         5.5,         0.0,         0.0,         0.0,         0.0
"Line.LN5706733-2"      ,   2,       -20.6,        -5.5
"Line.LN5745348-1"      ,   1,      2940.7,      -122.7,         0.0,         0.0,         0.0,         0.0
"Line.LN5745348-1"      ,   2,     -2940.1,       124.2
"Line.LN5898059-2"      ,   1,        12.6,         3.4,         0.0,         0.0,         0.0,         0.0
"Line.LN5898059-2"      ,   2,       -12.6,        -3.4
"Line.LN5744367-1"      ,   1,       168.6,        44.8,         0.0,         0.0,         0.0,         0.0
"Line.LN5744367-1"      ,   2,      -168.5,       -44.8
"Line.LN5773136-1"      ,   1,         4.1,         1.1,         0.0,         0.0,         0.0,         0.0
"Line.LN5773136-1"      ,   2,        -4.1,        -1.1
"Line.LN5472403-2"      ,   1,       224.4,        59.0,         0.0,         0.0,         0.0,         0.0
"Line.LN5472403-2"      ,   2,      -224.4,       -59.0
"Line.LN5712496-1"      ,   1,        13.5,         3.6,         0.0,         0.0,         0.0,         0.0
"Line.LN5712496-1"      ,   2,       -13.5,        -3.6
"Line.LN5772710-1"      ,   1,        81.0,        21.6,         0.0,         0.0,         0.0,         0.0
"Line.LN5772710-1"      ,   2,       -81.0,       -21.6
"Line.LN6139544-1"      ,   1,       218.3,        58.2,         0.0,         0.0,         0.0,         0.0
"Line.LN6139544-1"      ,   2,      -218.0,       -58.0
"Line.LN6015788-2"      ,   1,        92.8,        24.8,         0.0,         0.0,         0.0,         0.0
"Line.LN6015788-2"      ,   2,       -92.8,       -24.8
"Line.LN5591702-1"      ,   1,       161.5,        43.0,         0.0,         0.0,         0.0,         0.0
"Line.LN5591702-1"      ,   2,      -161.4,       -42.9
"Line.LN5986923-1"      ,   1,        83.0,        21.9,         0.0,         0.0,         0.0,         0.0
"Line.LN5986923-1"      ,   2,       -83.0,       -21.9
"Line.LN6301772-2"      ,   1,        62.2,        16.6,         0.0,         0.0,         0.0,         0.0
"Line.LN6301772-2"      ,   2,       -62.2,       -16.6
"Line.LN6001653-2"      ,   1,       507.8,       134.9,         0.0,         0.0,         0.0,         0.0
"Line.LN6001653-2"      ,   2,      -507.5,      -134.8
"Line.LN6017283-1"      ,   1,        25.7,         6.8,         0.0,         0.0,         0.0,         0.0
"Line.LN6017283-1"      ,   2,       -25.7,        -6.8
"Line.LN5686079-1"      ,   1,      1142.5,       303.9,         0.0,         0.0,         0.0,         0.0
"Line.LN5686079-1"      ,   2,     -1142.1,      -303.5
"Line.LN5527264-7"      ,   1,      5828.1,       463.1,         0.0,         0.0,         0.0,         0.0
"Line.LN5527264-7"      ,   2,     -5827.2,      -461.0
"Line.LN5683813-1"      ,   1,         5.4,         1.4,         0.0,         0.0,         0.0,         0.0
"Line.LN5683813-1"      ,   2,        -5.4,        -1.4
"Line.LN5986935-1"      ,   1,       748.9,       199.8,         0.0,         0.0,         0.0,         0.0
"Line.LN5986935-1"      ,   2,      -748.2,      -199.6
"Line.LN5956457-3"      ,   1,       776.6,       206.9,         0.0,         0.0,         0.0,         0.0
"Line.LN5956457-3"      ,   2,      -776.4,      -206.8
"Line.LN5654471-1"      ,   1,      2965.1,      -114.9,         0.0,         0.0,         0.0,         0.0
"Line.LN5654471-1"      ,   2,     -2964.4,       116.5
"Line.LN6409800-1"      ,   1,         9.0,         2.4,         0.0,         0.0,         0.0,         0.0
"Line.LN6409800-1"      ,   2,        -9.0,        -2.4
"Line.LN6411365-1"      ,   1,         9.0,         2.4,         0.0,         0.0,         0.0,         0.0
"Line.LN6411365-1"      ,   2,        -9.0,        -2.4
"Line.LN6320328-1"      ,   1,       113.8,        30.1,         0.0,         0.0,         0.0,         0.0
"Line.LN6320328-1"      ,   2,      -113.7,       -30.1
"Line.LN5712477-3"      ,   1,       108.5,        28.8,         0.0,         0.0,         0.0,         0.0
"Line.LN5712477-3"      ,   2,      -108.5,       -28.8
"Line.LN5621857-3"      ,   1,         5.4,         1.4,         0.0,         0.0,         0.0,         0.0
"Line.LN5621857-3"      ,   2,        -5.4,        -1.4
"Line.LN6440071-1"      ,   1,       121.8,        32.4,         0.0,         0.0,         0.0,         0.0
"Line.LN6440071-1"      ,   2,      -121.7,       -32.3
"Line.LN5472355-1"      ,   1,        14.4,         3.8,         0.0,         0.0,         0.0,         0.0
"Line.LN5472355-1"      ,   2,       -14.4,        -3.8
"Line.LN6351523-3"      ,   1,       403.2,       108.2,         0.0,         0.0,         0.0,         0.0
"Line.LN6351523-3"      ,   2,      -403.1,      -108.2
...
"Line.V9287_48332_SW"   ,   1,       152.2,        40.5,         0.0,         0.0,         0.0,         0.0
"Line.V9287_48332_SW"   ,   2,      -152.2,       -40.5
"Line.LN6019477-1"      ,   1,       152.2,        40.5,         0.0,         0.0,         0.0,         0.0
"Line.LN6019477-1"      ,   2,      -152.2,       -40.5
"Line.LN5593227-1"      ,   1,        19.7,         5.2,         0.0,         0.0,         0.0,         0.0
"Line.LN5593227-1"      ,   2,       -19.7,        -5.2
"Line.LN6409869-1"      ,   1,         0.0,        -0.0,         0.0,         0.0,         0.0,         0.0
"Line.LN6409869-1"      ,   2,        -0.0,         0.0
"Line.LN6321419-2"      ,   1,        35.5,         9.3,         0.0,         0.0,         0.0,         0.0
"Line.LN6321419-2"      ,   2,       -35.5,        -9.3
"Line.LN6348954-1"      ,   1,        10.3,         2.7,         0.0,         0.0,         0.0,         0.0
"Line.LN6348954-1"      ,   2,       -10.3,        -2.8
"Line.LN6201695-2"      ,   1,         9.0,         2.4,         0.0,         0.0,         0.0,         0.0
"Line.LN6201695-2"      ,   2,        -9.0,        -2.4
"Line.LN6048635-1"      ,   1,        35.5,         9.3,         0.0,         0.0,         0.0,         0.0
"Line.LN6048635-1"      ,   2,       -35.5,        -9.3
"Line.LN6199519-1"      ,   1,       209.1,        55.8,         0.0,         0.0,         0.0,         0.0
"Line.LN6199519-1"      ,   2,      -208.9,       -55.7
"Line.LN6505938-4"      ,   1,        19.8,         5.3,         0.0,         0.0,         0.0,         0.0
"Line.LN6505938-4"      ,   2,       -19.8,        -5.3
"Line.LN5472375-1"      ,   1,       652.7,       172.8,         0.0,         0.0,         0.0,         0.0
"Line.LN5472375-1"      ,   2,      -652.7,      -172.8
"Line.LN5835124-1"      ,   1,        14.9,         4.0,         0.0,         0.0,         0.0,         0.0
"Line.LN5835124-1"      ,   2,       -14.9,        -4.0
"Line.LN6103927-1"      ,   1,        18.1,         4.8,         0.0,         0.0,         0.0,         0.0
"Line.LN6103927-1"      ,   2,       -18.1,        -4.8
"Line.LN6138622-1"      ,   1,        18.0,         4.8,         0.0,         0.0,         0.0,         0.0
"Line.LN6138622-1"      ,   2,       -18.0,        -4.8
"Line.LN5776673-1"      ,   1,        51.6,        13.8,         0.0,         0.0,         0.0,         0.0
"Line.LN5776673-1"      ,   2,       -51.6,       -13.8
"Line.LN6074369-1"      ,   1,        19.8,         5.3,         0.0,         0.0,         0.0,         0.0
"Line.LN6074369-1"      ,   2,       -19.8,        -5.3
"Line.LN5621826-1"      ,   1,         9.0,         2.4,         0.0,         0.0,         0.0,         0.0
"Line.LN5621826-1"      ,   2,        -9.0,        -2.4
"Line.LN6506312-2"      ,   1,        62.2,        16.6,         0.0,         0.0,         0.0,         0.0
"Line.LN6506312-2"      ,   2,       -62.2,       -16.6
"Line.LN6046046-1"      ,   1,         9.9,         2.6,         0.0,         0.0,         0.0,         0.0
"Line.LN6046046-1"      ,   2,        -9.9,        -2.6
"Line.LN6138589-1"      ,   1,         4.1,         1.1,         0.0,         0.0,         0.0,         0.0
"Line.LN6138589-1"      ,   2,        -4.1,        -1.1
"Line.LN6258445-1"      ,   1,        10.3,         2.8,         0.0,         0.0,         0.0,         0.0
"Line.LN6258445-1"      ,   2,       -10.3,        -2.8
"Line.LN5653480-1"      ,   1,      5193.8,      1465.7,         0.0,         0.0,         0.0,         0.0
"Line.LN5653480-1"      ,   2,     -5189.3,     -1461.6
"Line.LN5717630-1"      ,   1,       122.1,        32.4,         0.0,         0.0,         0.0,         0.0
"Line.LN5717630-1"      ,   2,      -122.1,       -32.4
"Line.LN5956463-1"      ,   1,      1223.1,      -606.2,         0.0,         0.0,         0.0,         0.0
"Line.LN5956463-1"      ,   2,     -1221.2,       606.9
"Line.LN5744328-1"      ,   1,        55.3,        14.6,         0.0,         0.0,         0.0,         0.0
"Line.LN5744328-1"      ,   2,       -55.3,       -14.6
"Line.LN8979254-1"      ,   1,        58.7,        15.6,         0.0,         0.0,         0.0,         0.0
"Line.LN8979254-1"      ,   2,       -58.7,       -15.6
"Line.LN5620694-1"      ,   1,        14.4,         3.8,         0.0,         0.0,         0.0,         0.0
"Line.LN5620694-1"      ,   2,       -14.4,        -3.8
"Line.LN6048634-1"      ,   1,     11426.5,       986.6,      3069.1,       265.0,         0.0,         0.0
"Line.LN6048634-1"      ,   2,    -11421.2,      -974.0
"Line.LN5895779-1"      ,   1,         5.4,         1.4,         0.0,         0.0,         0.0,         0.0
"Line.LN5895779-1"      ,   2,        -5.4,        -1.4
"Line.LN5951197-2"      ,   1,         5.9,         1.6,         0.0,         0.0,         0.0,         0.0
"Line.LN5951197-2"      ,   2,        -5.9,        -1.6
"Line.LN5563942-3"      ,   1,     10675.5,      1395.9,      2484.9,       324.9,         0.0,         0.0
"Line.LN5563942-3"      ,   2,    -10670.9,     -1385.1
"Line.LN5835123-1"      ,   1,        15.8,         4.0,         0.0,         0.0,         0.0,         0.0
"Line.LN5835123-1"      ,   2,       -15.8,        -4.0
"Line.LN5956483-1"      ,   1,        19.9,         5.3,         0.0,         0.0,         0.0,         0.0
"Line.LN5956483-1"      ,   2,       -19.9,        -5.3
"Line.LN6291153-1"      ,   1,        13.5,         3.6,         0.0,         0.0,         0.0,         0.0
"Line.LN6291153-1"      ,   2,       -13.5,        -3.6
"Line.LN5683841-1"      ,   1,        18.9,         5.0,         0.0,         0.0,         0.0,         0.0
"Line.LN5683841-1"      ,   2,       -18.9,        -5.0
"Line.LN5804802-1"      ,   1,      1137.7,      -630.2,         0.0,         0.0,         0.0,         0.0
"Line.LN5804802-1"      ,   2,     -1136.2,       630.7
"Line.LN6167753-1"      ,   1,         3.9,         1.0,         0.0,         0.0,         0.0,         0.0
"Line.LN6167753-1"      ,   2,        -3.9,        -1.1
"Line.LN6047569-1"      ,   1,         6.2,         1.6,         0.0,         0.0,         0.0,         0.0
"Line.LN6047569-1"      ,   2,        -6.2,        -1.7
"Line.LN6229809-1"      ,   1,       680.8,       180.4,         0.0,         0.0,         0.0,         0.0
"Line.LN6229809-1"      ,   2,      -680.1,      -180.2
"Line.LN5804781-1"      ,   1,        78.1,        20.8,         0.0,         0.0,         0.0,         0.0
"Line.LN5804781-1"      ,   2,       -78.1,       -20.8
"Line.LN6352701-1"      ,   1,        -0.0,        -0.0,         0.0,         0.0,         0.0,         0.0
"Line.LN6352701-1"      ,   2,        -0.0,        -0.0
"Line.LN5955074-2"      ,   1,        76.2,        19.8,         0.0,         0.0,         0.0,         0.0
"Line.LN5955074-2"      ,   2,       -76.2,       -19.8
"Line.LN6229805-1"      ,   1,        22.7,         6.0,         0.0,         0.0,         0.0,         0.0
"Line.LN6229805-1"      ,   2,       -22.7,        -6.0
"Line.LN6411376-1"      ,   1,        97.2,        25.8,         0.0,         0.0,         0.0,         0.0
"Line.LN6411376-1"      ,   2,       -97.2,       -25.8
"Line.LN5654485-1"      ,   1,         3.9,         1.0,         0.0,         0.0,         0.0,         0.0
"Line.LN5654485-1"      ,   2,        -3.9,        -1.0
"Line.LN5746550-3"      ,   1,         5.9,         1.6,         0.0,         0.0,         0.0,         0.0
"Line.LN5746550-3"      ,   2,        -5.9,        -1.6
"Line.LN6232159-1"      ,   1,         3.6,         1.0,         0.0,         0.0,         0.0,         0.0
"Line.LN6232159-1"      ,   2,        -3.6,        -1.0
"Line.LN6412346-1"      ,   1,        10.3,         2.7,         0.0,         0.0,         0.0,         0.0
"Line.LN6412346-1"      ,   2,       -10.3,        -2.8
"Line.LN6350548-1"      ,   1,        24.7,         6.6,         0.0,         0.0,         0.0,         0.0
"Line.LN6350548-1"      ,   2,       -24.7,        -6.6
"Line.LN6106658-1"      ,   1,       161.6,        43.0,         0.0,         0.0,         0.0,         0.0
"Line.LN6106658-1"      ,   2,      -161.6,       -43.0
"Line.LN6047554-1"      ,   1,         9.9,         2.6,         0.0,         0.0,         0.0,         0.0
"Line.LN6047554-1"      ,   2,        -9.9,        -2.6
"Line.LN5956458-1"      ,   1,         9.9,         2.6,         0.0,         0.0,         0.0,         0.0
"Line.LN5956458-1"      ,   2,        -9.9,        -2.6
...